/*--------------------------------*- C++ -*----------------------------------*
 | =========                 |                                                 |
| \      /  F ield         | OpenFOAM: The Open Source CFD Toolbox           |
|  \    /   O peration     | Version:  dev                                   |
|   \  /    A nd           | Web:      www.OpenFOAM.org                      |
|    \/     M anipulation  |                                                 |
\*---------------------------------------------------------------------------*/
FoamFile
{    version     2.0;
    format      ascii;
    class       vectorField;
    object      kinematicCloudPositions;
}
// * * * * * * * * * * * * * * * * * * * * * * * * * * * * * * * * * * * * * //

1000
(
(196500 740500 30)
(196500 740500 30)
(196500 740500 30)
(196500 740500 30)
(196500 740500 30)
(196500 740500 30)
(196500 740500 30)
(196500 740500 30)
(196500 740500 30)
(196500 740500 30)
(196500 740500 30)
(196500 740500 30)
(196500 740500 30)
(196500 740500 30)
(196500 740500 30)
(196500 740500 30)
(196500 740500 30)
(196500 740500 30)
(196500 740500 30)
(196500 740500 30)
(196500 740500 30)
(196500 740500 30)
(196500 740500 30)
(196500 740500 30)
(196500 740500 30)
(196500 740500 30)
(196500 740500 30)
(196500 740500 30)
(196500 740500 30)
(196500 740500 30)
(196500 740500 30)
(196500 740500 30)
(196500 740500 30)
(196500 740500 30)
(196500 740500 30)
(196500 740500 30)
(196500 740500 30)
(196500 740500 30)
(196500 740500 30)
(196500 740500 30)
(196500 740500 30)
(196500 740500 30)
(196500 740500 30)
(196500 740500 30)
(196500 740500 30)
(196500 740500 30)
(196500 740500 30)
(196500 740500 30)
(196500 740500 30)
(196500 740500 30)
(196500 740500 30)
(196500 740500 30)
(196500 740500 30)
(196500 740500 30)
(196500 740500 30)
(196500 740500 30)
(196500 740500 30)
(196500 740500 30)
(196500 740500 30)
(196500 740500 30)
(196500 740500 30)
(196500 740500 30)
(196500 740500 30)
(196500 740500 30)
(196500 740500 30)
(196500 740500 30)
(196500 740500 30)
(196500 740500 30)
(196500 740500 30)
(196500 740500 30)
(196500 740500 30)
(196500 740500 30)
(196500 740500 30)
(196500 740500 30)
(196500 740500 30)
(196500 740500 30)
(196500 740500 30)
(196500 740500 30)
(196500 740500 30)
(196500 740500 30)
(196500 740500 30)
(196500 740500 30)
(196500 740500 30)
(196500 740500 30)
(196500 740500 30)
(196500 740500 30)
(196500 740500 30)
(196500 740500 30)
(196500 740500 30)
(196500 740500 30)
(196500 740500 30)
(196500 740500 30)
(196500 740500 30)
(196500 740500 30)
(196500 740500 30)
(196500 740500 30)
(196500 740500 30)
(196500 740500 30)
(196500 740500 30)
(196500 740500 30)
(196500 740500 30)
(196500 740500 30)
(196500 740500 30)
(196500 740500 30)
(196500 740500 30)
(196500 740500 30)
(196500 740500 30)
(196500 740500 30)
(196500 740500 30)
(196500 740500 30)
(196500 740500 30)
(196500 740500 30)
(196500 740500 30)
(196500 740500 30)
(196500 740500 30)
(196500 740500 30)
(196500 740500 30)
(196500 740500 30)
(196500 740500 30)
(196500 740500 30)
(196500 740500 30)
(196500 740500 30)
(196500 740500 30)
(196500 740500 30)
(196500 740500 30)
(196500 740500 30)
(196500 740500 30)
(196500 740500 30)
(196500 740500 30)
(196500 740500 30)
(196500 740500 30)
(196500 740500 30)
(196500 740500 30)
(196500 740500 30)
(196500 740500 30)
(196500 740500 30)
(196500 740500 30)
(196500 740500 30)
(196500 740500 30)
(196500 740500 30)
(196500 740500 30)
(196500 740500 30)
(196500 740500 30)
(196500 740500 30)
(196500 740500 30)
(196500 740500 30)
(196500 740500 30)
(196500 740500 30)
(196500 740500 30)
(196500 740500 30)
(196500 740500 30)
(196500 740500 30)
(196500 740500 30)
(196500 740500 30)
(196500 740500 30)
(196500 740500 30)
(196500 740500 30)
(196500 740500 30)
(196500 740500 30)
(196500 740500 30)
(196500 740500 30)
(196500 740500 30)
(196500 740500 30)
(196500 740500 30)
(196500 740500 30)
(196500 740500 30)
(196500 740500 30)
(196500 740500 30)
(196500 740500 30)
(196500 740500 30)
(196500 740500 30)
(196500 740500 30)
(196500 740500 30)
(196500 740500 30)
(196500 740500 30)
(196500 740500 30)
(196500 740500 30)
(196500 740500 30)
(196500 740500 30)
(196500 740500 30)
(196500 740500 30)
(196500 740500 30)
(196500 740500 30)
(196500 740500 30)
(196500 740500 30)
(196500 740500 30)
(196500 740500 30)
(196500 740500 30)
(196500 740500 30)
(196500 740500 30)
(196500 740500 30)
(196500 740500 30)
(196500 740500 30)
(196500 740500 30)
(196500 740500 30)
(196500 740500 30)
(196500 740500 30)
(196500 740500 30)
(196500 740500 30)
(196500 740500 30)
(196500 740500 30)
(196500 740500 30)
(196500 740500 30)
(196500 740500 30)
(196500 740500 30)
(196500 740500 30)
(196500 740500 30)
(196500 740500 30)
(196500 740500 30)
(196500 740500 30)
(196500 740500 30)
(196500 740500 30)
(196500 740500 30)
(196500 740500 30)
(196500 740500 30)
(196500 740500 30)
(196500 740500 30)
(196500 740500 30)
(196500 740500 30)
(196500 740500 30)
(196500 740500 30)
(196500 740500 30)
(196500 740500 30)
(196500 740500 30)
(196500 740500 30)
(196500 740500 30)
(196500 740500 30)
(196500 740500 30)
(196500 740500 30)
(196500 740500 30)
(196500 740500 30)
(196500 740500 30)
(196500 740500 30)
(196500 740500 30)
(196500 740500 30)
(196500 740500 30)
(196500 740500 30)
(196500 740500 30)
(196500 740500 30)
(196500 740500 30)
(196500 740500 30)
(196500 740500 30)
(196500 740500 30)
(196500 740500 30)
(196500 740500 30)
(196500 740500 30)
(196500 740500 30)
(196500 740500 30)
(196500 740500 30)
(196500 740500 30)
(196500 740500 30)
(196500 740500 30)
(196500 740500 30)
(196500 740500 30)
(196500 740500 30)
(196500 740500 30)
(196500 740500 30)
(196500 740500 30)
(196500 740500 30)
(196500 740500 30)
(196500 740500 30)
(196500 740500 30)
(196500 740500 30)
(196500 740500 30)
(196500 740500 30)
(196500 740500 30)
(196500 740500 30)
(196500 740500 30)
(196500 740500 30)
(196500 740500 30)
(196500 740500 30)
(196500 740500 30)
(196500 740500 30)
(196500 740500 30)
(196500 740500 30)
(196500 740500 30)
(196500 740500 30)
(196500 740500 30)
(196500 740500 30)
(196500 740500 30)
(196500 740500 30)
(196500 740500 30)
(196500 740500 30)
(196500 740500 30)
(196500 740500 30)
(196500 740500 30)
(196500 740500 30)
(196500 740500 30)
(196500 740500 30)
(196500 740500 30)
(196500 740500 30)
(196500 740500 30)
(196500 740500 30)
(196500 740500 30)
(196500 740500 30)
(196500 740500 30)
(196500 740500 30)
(196500 740500 30)
(196500 740500 30)
(196500 740500 30)
(196500 740500 30)
(196500 740500 30)
(196500 740500 30)
(196500 740500 30)
(196500 740500 30)
(196500 740500 30)
(196500 740500 30)
(196500 740500 30)
(196500 740500 30)
(196500 740500 30)
(196500 740500 30)
(196500 740500 30)
(196500 740500 30)
(196500 740500 30)
(196500 740500 30)
(196500 740500 30)
(196500 740500 30)
(196500 740500 30)
(196500 740500 30)
(196500 740500 30)
(196500 740500 30)
(196500 740500 30)
(196500 740500 30)
(196500 740500 30)
(196500 740500 30)
(196500 740500 30)
(196500 740500 30)
(196500 740500 30)
(196500 740500 30)
(196500 740500 30)
(196500 740500 30)
(196500 740500 30)
(196500 740500 30)
(196500 740500 30)
(196500 740500 30)
(196500 740500 30)
(196500 740500 30)
(196500 740500 30)
(196500 740500 30)
(196500 740500 30)
(196500 740500 30)
(196500 740500 30)
(196500 740500 30)
(196500 740500 30)
(196500 740500 30)
(196500 740500 30)
(196500 740500 30)
(196500 740500 30)
(196500 740500 30)
(196500 740500 30)
(196500 740500 30)
(196500 740500 30)
(196500 740500 30)
(196500 740500 30)
(196500 740500 30)
(196500 740500 30)
(196500 740500 30)
(196500 740500 30)
(196500 740500 30)
(196500 740500 30)
(196500 740500 30)
(196500 740500 30)
(196500 740500 30)
(196500 740500 30)
(196500 740500 30)
(196500 740500 30)
(196500 740500 30)
(196500 740500 30)
(196500 740500 30)
(196500 740500 30)
(196500 740500 30)
(196500 740500 30)
(196500 740500 30)
(196500 740500 30)
(196500 740500 30)
(196500 740500 30)
(196500 740500 30)
(196500 740500 30)
(196500 740500 30)
(196500 740500 30)
(196500 740500 30)
(196500 740500 30)
(196500 740500 30)
(196500 740500 30)
(196500 740500 30)
(196500 740500 30)
(196500 740500 30)
(196500 740500 30)
(196500 740500 30)
(196500 740500 30)
(196500 740500 30)
(196500 740500 30)
(196500 740500 30)
(196500 740500 30)
(196500 740500 30)
(196500 740500 30)
(196500 740500 30)
(196500 740500 30)
(196500 740500 30)
(196500 740500 30)
(196500 740500 30)
(196500 740500 30)
(196500 740500 30)
(196500 740500 30)
(196500 740500 30)
(196500 740500 30)
(196500 740500 30)
(196500 740500 30)
(196500 740500 30)
(196500 740500 30)
(196500 740500 30)
(196500 740500 30)
(196500 740500 30)
(196500 740500 30)
(196500 740500 30)
(196500 740500 30)
(196500 740500 30)
(196500 740500 30)
(196500 740500 30)
(196500 740500 30)
(196500 740500 30)
(196500 740500 30)
(196500 740500 30)
(196500 740500 30)
(196500 740500 30)
(196500 740500 30)
(196500 740500 30)
(196500 740500 30)
(196500 740500 30)
(196500 740500 30)
(196500 740500 30)
(196500 740500 30)
(196500 740500 30)
(196500 740500 30)
(196500 740500 30)
(196500 740500 30)
(196500 740500 30)
(196500 740500 30)
(196500 740500 30)
(196500 740500 30)
(196500 740500 30)
(196500 740500 30)
(196500 740500 30)
(196500 740500 30)
(196500 740500 30)
(196500 740500 30)
(196500 740500 30)
(196500 740500 30)
(196500 740500 30)
(196500 740500 30)
(196500 740500 30)
(196500 740500 30)
(196500 740500 30)
(196500 740500 30)
(196500 740500 30)
(196500 740500 30)
(196500 740500 30)
(196500 740500 30)
(196500 740500 30)
(196500 740500 30)
(196500 740500 30)
(196500 740500 30)
(196500 740500 30)
(196500 740500 30)
(196500 740500 30)
(196500 740500 30)
(196500 740500 30)
(196500 740500 30)
(196500 740500 30)
(196500 740500 30)
(196500 740500 30)
(196500 740500 30)
(196500 740500 30)
(196500 740500 30)
(196500 740500 30)
(196500 740500 30)
(196500 740500 30)
(196500 740500 30)
(196500 740500 30)
(196500 740500 30)
(196500 740500 30)
(196500 740500 30)
(196500 740500 30)
(196500 740500 30)
(196500 740500 30)
(196500 740500 30)
(196500 740500 30)
(196500 740500 30)
(196500 740500 30)
(196500 740500 30)
(196500 740500 30)
(196500 740500 30)
(196500 740500 30)
(196500 740500 30)
(196500 740500 30)
(196500 740500 30)
(196500 740500 30)
(196500 740500 30)
(196500 740500 30)
(196500 740500 30)
(196500 740500 30)
(196500 740500 30)
(196500 740500 30)
(196500 740500 30)
(196500 740500 30)
(196500 740500 30)
(196500 740500 30)
(196500 740500 30)
(196500 740500 30)
(196500 740500 30)
(196500 740500 30)
(196500 740500 30)
(196500 740500 30)
(196500 740500 30)
(196500 740500 30)
(196500 740500 30)
(196500 740500 30)
(196500 740500 30)
(196500 740500 30)
(196500 740500 30)
(196500 740500 30)
(196500 740500 30)
(196500 740500 30)
(196500 740500 30)
(196500 740500 30)
(196500 740500 30)
(196500 740500 30)
(196500 740500 30)
(196500 740500 30)
(196500 740500 30)
(196500 740500 30)
(196500 740500 30)
(196500 740500 30)
(196500 740500 30)
(196500 740500 30)
(196500 740500 30)
(196500 740500 30)
(196500 740500 30)
(196500 740500 30)
(196500 740500 30)
(196500 740500 30)
(196500 740500 30)
(196500 740500 30)
(196500 740500 30)
(196500 740500 30)
(196500 740500 30)
(196500 740500 30)
(196500 740500 30)
(196500 740500 30)
(196500 740500 30)
(196500 740500 30)
(196500 740500 30)
(196500 740500 30)
(196500 740500 30)
(196500 740500 30)
(196500 740500 30)
(196500 740500 30)
(196500 740500 30)
(196500 740500 30)
(196500 740500 30)
(196500 740500 30)
(196500 740500 30)
(196500 740500 30)
(196500 740500 30)
(196500 740500 30)
(196500 740500 30)
(196500 740500 30)
(196500 740500 30)
(196500 740500 30)
(196500 740500 30)
(196500 740500 30)
(196500 740500 30)
(196500 740500 30)
(196500 740500 30)
(196500 740500 30)
(196500 740500 30)
(196500 740500 30)
(196500 740500 30)
(196500 740500 30)
(196500 740500 30)
(196500 740500 30)
(196500 740500 30)
(196500 740500 30)
(196500 740500 30)
(196500 740500 30)
(196500 740500 30)
(196500 740500 30)
(196500 740500 30)
(196500 740500 30)
(196500 740500 30)
(196500 740500 30)
(196500 740500 30)
(196500 740500 30)
(196500 740500 30)
(196500 740500 30)
(196500 740500 30)
(196500 740500 30)
(196500 740500 30)
(196500 740500 30)
(196500 740500 30)
(196500 740500 30)
(196500 740500 30)
(196500 740500 30)
(196500 740500 30)
(196500 740500 30)
(196500 740500 30)
(196500 740500 30)
(196500 740500 30)
(196500 740500 30)
(196500 740500 30)
(196500 740500 30)
(196500 740500 30)
(196500 740500 30)
(196500 740500 30)
(196500 740500 30)
(196500 740500 30)
(196500 740500 30)
(196500 740500 30)
(196500 740500 30)
(196500 740500 30)
(196500 740500 30)
(196500 740500 30)
(196500 740500 30)
(196500 740500 30)
(196500 740500 30)
(196500 740500 30)
(196500 740500 30)
(196500 740500 30)
(196500 740500 30)
(196500 740500 30)
(196500 740500 30)
(196500 740500 30)
(196500 740500 30)
(196500 740500 30)
(196500 740500 30)
(196500 740500 30)
(196500 740500 30)
(196500 740500 30)
(196500 740500 30)
(196500 740500 30)
(196500 740500 30)
(196500 740500 30)
(196500 740500 30)
(196500 740500 30)
(196500 740500 30)
(196500 740500 30)
(196500 740500 30)
(196500 740500 30)
(196500 740500 30)
(196500 740500 30)
(196500 740500 30)
(196500 740500 30)
(196500 740500 30)
(196500 740500 30)
(196500 740500 30)
(196500 740500 30)
(196500 740500 30)
(196500 740500 30)
(196500 740500 30)
(196500 740500 30)
(196500 740500 30)
(196500 740500 30)
(196500 740500 30)
(196500 740500 30)
(196500 740500 30)
(196500 740500 30)
(196500 740500 30)
(196500 740500 30)
(196500 740500 30)
(196500 740500 30)
(196500 740500 30)
(196500 740500 30)
(196500 740500 30)
(196500 740500 30)
(196500 740500 30)
(196500 740500 30)
(196500 740500 30)
(196500 740500 30)
(196500 740500 30)
(196500 740500 30)
(196500 740500 30)
(196500 740500 30)
(196500 740500 30)
(196500 740500 30)
(196500 740500 30)
(196500 740500 30)
(196500 740500 30)
(196500 740500 30)
(196500 740500 30)
(196500 740500 30)
(196500 740500 30)
(196500 740500 30)
(196500 740500 30)
(196500 740500 30)
(196500 740500 30)
(196500 740500 30)
(196500 740500 30)
(196500 740500 30)
(196500 740500 30)
(196500 740500 30)
(196500 740500 30)
(196500 740500 30)
(196500 740500 30)
(196500 740500 30)
(196500 740500 30)
(196500 740500 30)
(196500 740500 30)
(196500 740500 30)
(196500 740500 30)
(196500 740500 30)
(196500 740500 30)
(196500 740500 30)
(196500 740500 30)
(196500 740500 30)
(196500 740500 30)
(196500 740500 30)
(196500 740500 30)
(196500 740500 30)
(196500 740500 30)
(196500 740500 30)
(196500 740500 30)
(196500 740500 30)
(196500 740500 30)
(196500 740500 30)
(196500 740500 30)
(196500 740500 30)
(196500 740500 30)
(196500 740500 30)
(196500 740500 30)
(196500 740500 30)
(196500 740500 30)
(196500 740500 30)
(196500 740500 30)
(196500 740500 30)
(196500 740500 30)
(196500 740500 30)
(196500 740500 30)
(196500 740500 30)
(196500 740500 30)
(196500 740500 30)
(196500 740500 30)
(196500 740500 30)
(196500 740500 30)
(196500 740500 30)
(196500 740500 30)
(196500 740500 30)
(196500 740500 30)
(196500 740500 30)
(196500 740500 30)
(196500 740500 30)
(196500 740500 30)
(196500 740500 30)
(196500 740500 30)
(196500 740500 30)
(196500 740500 30)
(196500 740500 30)
(196500 740500 30)
(196500 740500 30)
(196500 740500 30)
(196500 740500 30)
(196500 740500 30)
(196500 740500 30)
(196500 740500 30)
(196500 740500 30)
(196500 740500 30)
(196500 740500 30)
(196500 740500 30)
(196500 740500 30)
(196500 740500 30)
(196500 740500 30)
(196500 740500 30)
(196500 740500 30)
(196500 740500 30)
(196500 740500 30)
(196500 740500 30)
(196500 740500 30)
(196500 740500 30)
(196500 740500 30)
(196500 740500 30)
(196500 740500 30)
(196500 740500 30)
(196500 740500 30)
(196500 740500 30)
(196500 740500 30)
(196500 740500 30)
(196500 740500 30)
(196500 740500 30)
(196500 740500 30)
(196500 740500 30)
(196500 740500 30)
(196500 740500 30)
(196500 740500 30)
(196500 740500 30)
(196500 740500 30)
(196500 740500 30)
(196500 740500 30)
(196500 740500 30)
(196500 740500 30)
(196500 740500 30)
(196500 740500 30)
(196500 740500 30)
(196500 740500 30)
(196500 740500 30)
(196500 740500 30)
(196500 740500 30)
(196500 740500 30)
(196500 740500 30)
(196500 740500 30)
(196500 740500 30)
(196500 740500 30)
(196500 740500 30)
(196500 740500 30)
(196500 740500 30)
(196500 740500 30)
(196500 740500 30)
(196500 740500 30)
(196500 740500 30)
(196500 740500 30)
(196500 740500 30)
(196500 740500 30)
(196500 740500 30)
(196500 740500 30)
(196500 740500 30)
(196500 740500 30)
(196500 740500 30)
(196500 740500 30)
(196500 740500 30)
(196500 740500 30)
(196500 740500 30)
(196500 740500 30)
(196500 740500 30)
(196500 740500 30)
(196500 740500 30)
(196500 740500 30)
(196500 740500 30)
(196500 740500 30)
(196500 740500 30)
(196500 740500 30)
(196500 740500 30)
(196500 740500 30)
(196500 740500 30)
(196500 740500 30)
(196500 740500 30)
(196500 740500 30)
(196500 740500 30)
(196500 740500 30)
(196500 740500 30)
(196500 740500 30)
(196500 740500 30)
(196500 740500 30)
(196500 740500 30)
(196500 740500 30)
(196500 740500 30)
(196500 740500 30)
(196500 740500 30)
(196500 740500 30)
(196500 740500 30)
(196500 740500 30)
(196500 740500 30)
(196500 740500 30)
(196500 740500 30)
(196500 740500 30)
(196500 740500 30)
(196500 740500 30)
(196500 740500 30)
(196500 740500 30)
(196500 740500 30)
(196500 740500 30)
(196500 740500 30)
(196500 740500 30)
(196500 740500 30)
(196500 740500 30)
(196500 740500 30)
(196500 740500 30)
(196500 740500 30)
(196500 740500 30)
(196500 740500 30)
(196500 740500 30)
(196500 740500 30)
(196500 740500 30)
(196500 740500 30)
(196500 740500 30)
(196500 740500 30)
(196500 740500 30)
(196500 740500 30)
(196500 740500 30)
(196500 740500 30)
(196500 740500 30)
(196500 740500 30)
(196500 740500 30)
(196500 740500 30)
(196500 740500 30)
(196500 740500 30)
(196500 740500 30)
(196500 740500 30)
(196500 740500 30)
(196500 740500 30)
(196500 740500 30)
(196500 740500 30)
(196500 740500 30)
(196500 740500 30)
(196500 740500 30)
(196500 740500 30)
(196500 740500 30)
(196500 740500 30)
(196500 740500 30)
(196500 740500 30)
(196500 740500 30)
(196500 740500 30)
(196500 740500 30)
(196500 740500 30)
(196500 740500 30)
(196500 740500 30)
(196500 740500 30)
(196500 740500 30)
(196500 740500 30)
(196500 740500 30)
(196500 740500 30)
(196500 740500 30)
(196500 740500 30)
(196500 740500 30)
(196500 740500 30)
(196500 740500 30)
(196500 740500 30)
(196500 740500 30)
(196500 740500 30)
(196500 740500 30)
(196500 740500 30)
(196500 740500 30)
(196500 740500 30)
(196500 740500 30)
(196500 740500 30)
(196500 740500 30)
(196500 740500 30)
(196500 740500 30)
(196500 740500 30)
(196500 740500 30)
(196500 740500 30)
(196500 740500 30)
(196500 740500 30)
(196500 740500 30)
(196500 740500 30)
(196500 740500 30)
(196500 740500 30)
(196500 740500 30)
(196500 740500 30)
(196500 740500 30)
(196500 740500 30)
(196500 740500 30)
(196500 740500 30)
(196500 740500 30)
(196500 740500 30)
(196500 740500 30)
(196500 740500 30)
(196500 740500 30)
(196500 740500 30)
(196500 740500 30)
(196500 740500 30)
(196500 740500 30)
(196500 740500 30)
(196500 740500 30)
(196500 740500 30)
(196500 740500 30)
(196500 740500 30)
(196500 740500 30)
(196500 740500 30)
(196500 740500 30)
(196500 740500 30)
(196500 740500 30)
(196500 740500 30)
(196500 740500 30)
(196500 740500 30)
(196500 740500 30)
(196500 740500 30)
(196500 740500 30)
(196500 740500 30)
(196500 740500 30)
(196500 740500 30)
(196500 740500 30)
(196500 740500 30)
(196500 740500 30)
(196500 740500 30)
(196500 740500 30)
(196500 740500 30)
(196500 740500 30)
(196500 740500 30)
(196500 740500 30)
(196500 740500 30)
(196500 740500 30)
(196500 740500 30)
(196500 740500 30)
(196500 740500 30)
(196500 740500 30)
(196500 740500 30)
(196500 740500 30)
(196500 740500 30)
(196500 740500 30)
(196500 740500 30)
(196500 740500 30)
(196500 740500 30)
)
