/*--------------------------------*- C++ -*----------------------------------*\
| =========                 |                                                 |
| \\      /  F ield         | OpenFOAM: The Open Source CFD Toolbox           |
|  \\    /   O peration     | Version:  3.0.1                                 |
|   \\  /    A nd           | Web:      www.OpenFOAM.org                      |
|    \\/     M anipulation  |                                                 |
\*---------------------------------------------------------------------------*/
FoamFile
{
    version     2.0;
    format      ascii;
    class       volVectorField;
    object      U;
}
// * * * * * * * * * * * * * * * * * * * * * * * * * * * * * * * * * * * * * //

Uinlet          (0 0 0);

dimensions      [0 1 -1 0 0 0 0];

internalField   uniform (1.4142135623730951 1.4142135623730951 0);

boundaryField
{
   inlet
   {

        type            fixedValue;
        value           uniform (1.4142135623730951 1.4142135623730951 0);

    }


    outlet
    {
        type            fixedValue;
        value           uniform (1.4142135623730951 1.4142135623730951 0);
    }

    wall
    {
        type            fixedValue;
        value           uniform (1.4142135623730951 1.4142135623730951 0);
    }

    top
	{
	type slip;
	}

    frontAndBack
    {
        type            symmetry;
    }
    #includeEtc "caseDicts/setConstraintTypes"
}

// ************************************************************************* //
